
#======================================================================
# CRYSTAL DATA
#----------------------------------------------------------------------
data_VESTA_phase_1

_chemical_name_common                  'XCrySDen XSF file'
_cell_length_a                         12.575706
_cell_length_b                         12.575711
_cell_length_c                         14.999993
_cell_angle_alpha                      90.000000
_cell_angle_beta                       90.000000
_cell_angle_gamma                      120.000023
_cell_volume                           2054.407130
_space_group_name_H-M_alt              'P 1'
_space_group_IT_number                 1

loop_
_space_group_symop_operation_xyz
   'x, y, z'

loop_
   _atom_site_label
   _atom_site_occupancy
   _atom_site_fract_x
   _atom_site_fract_y
   _atom_site_fract_z
   _atom_site_adp_type
   _atom_site_U_iso_or_equiv
   _atom_site_type_symbol
   B1         1.0     0.066667     0.133333     0.500000    Uiso  ? B
   B1         1.0     0.066667     0.333333     0.500000    Uiso  ? B
   B1         1.0     0.066667     0.533333     0.500000    Uiso  ? B
   B1         1.0     0.066667     0.733333     0.500000    Uiso  ? B
   B1         1.0     0.066667     0.933333     0.500000    Uiso  ? B
   B1         1.0     0.266667     0.133333     0.500000    Uiso  ? B
   B1         1.0     0.266667     0.333333     0.500000    Uiso  ? B
   B1         1.0     0.266667     0.533333     0.500000    Uiso  ? B
   B1         1.0     0.266667     0.733333     0.500000    Uiso  ? B
   B1         1.0     0.266667     0.933333     0.500000    Uiso  ? B
   B1         1.0     0.466667     0.133333     0.500000    Uiso  ? B
   B1         1.0     0.466667     0.333333     0.500000    Uiso  ? B
   C          1.0     0.466667     0.533333     0.500000    Uiso  ? C
   B1         1.0     0.466667     0.733333     0.500000    Uiso  ? B
   B1         1.0     0.466667     0.933333     0.500000    Uiso  ? B
   B1         1.0     0.666667     0.133333     0.500000    Uiso  ? B
   B1         1.0     0.666667     0.333333     0.500000    Uiso  ? B
   B1         1.0     0.666667     0.533333     0.500000    Uiso  ? B
   B1         1.0     0.666667     0.733333     0.500000    Uiso  ? B
   B1         1.0     0.666667     0.933333     0.500000    Uiso  ? B
   B1         1.0     0.866667     0.133333     0.500000    Uiso  ? B
   B1         1.0     0.866667     0.333333     0.500000    Uiso  ? B
   B1         1.0     0.866667     0.533333     0.500000    Uiso  ? B
   B1         1.0     0.866667     0.733333     0.500000    Uiso  ? B
   B1         1.0     0.866667     0.933333     0.500000    Uiso  ? B
   N1         1.0     0.133333     0.066667     0.500000    Uiso  ? N
   N1         1.0     0.133333     0.266667     0.500000    Uiso  ? N
   N1         1.0     0.133333     0.466667     0.500000    Uiso  ? N
   N1         1.0     0.133333     0.666667     0.500000    Uiso  ? N
   N1         1.0     0.133333     0.866667     0.500000    Uiso  ? N
   N1         1.0     0.333333     0.066667     0.500000    Uiso  ? N
   N1         1.0     0.333333     0.266667     0.500000    Uiso  ? N
   C          1.0     0.333333     0.466667     0.500000    Uiso  ? C
   N1         1.0     0.333333     0.666667     0.500000    Uiso  ? N
   N1         1.0     0.333333     0.866667     0.500000    Uiso  ? N
   N1         1.0     0.533333     0.066667     0.500000    Uiso  ? N
   N1         1.0     0.533333     0.266667     0.500000    Uiso  ? N
   N1         1.0     0.533333     0.466667     0.500000    Uiso  ? N
   C          1.0     0.533333     0.666667     0.500000    Uiso  ? C
   N1         1.0     0.533333     0.866667     0.500000    Uiso  ? N
   N1         1.0     0.733333     0.066667     0.500000    Uiso  ? N
   N1         1.0     0.733333     0.266667     0.500000    Uiso  ? N
   N1         1.0     0.733333     0.466667     0.500000    Uiso  ? N
   N1         1.0     0.733333     0.666667     0.500000    Uiso  ? N
   N1         1.0     0.733333     0.866667     0.500000    Uiso  ? N
   N1         1.0     0.933333     0.066667     0.500000    Uiso  ? N
   N1         1.0     0.933333     0.266667     0.500000    Uiso  ? N
   N1         1.0     0.933333     0.466667     0.500000    Uiso  ? N
   N1         1.0     0.933333     0.666667     0.500000    Uiso  ? N
   N1         1.0     0.933333     0.866667     0.500000    Uiso  ? N
